L24/1726526/Chaves.dss
! ==========================================================
! CHAVES — geradas de UNSEMT (Line com Switch=Y)
! ==========================================================
! 53 chave(s) omitida(s): os dois PACs fora da rede de MT deste alimentador, o que criaria ilha flutuante — ex.: 528965192, 350208639, 2479235410
New Line.1690849065 Phases=3 Bus1=100_1690849078.1.2.3 Bus2=100_1690849077.1.2.3 Switch=Y r1=1e-4 x1=1e-4 r0=1e-4 x0=1e-4 normamps=9999
New Line.2014641747 Phases=3 Bus1=node_2092601211.1.2.3 Bus2=node_2332286103.1.2.3 Switch=Y r1=1e-4 x1=1e-4 r0=1e-4 x0=1e-4 normamps=9999
New Line.1867894396 Phases=1 Bus1=node_2188905380.2 Bus2=node_2188905381.2 Switch=Y r1=1e-4 x1=1e-4 r0=1e-4 x0=1e-4 normamps=9999
New Line.1906347085 Phases=1 Bus1=node_2225429974.1 Bus2=node_2225429975.1 Switch=Y r1=1e-4 x1=1e-4 r0=1e-4 x0=1e-4 normamps=9999
New Line.1372912443 Phases=3 Bus1=node_1667494113.1.2.3 Bus2=node_1667494114.1.2.3 Switch=Y r1=1e-4 x1=1e-4 r0=1e-4 x0=1e-4 normamps=9999
New Line.341577789 Phases=3 Bus1=node_535118650.1.2.3 Bus2=node_535118651.1.2.3 Switch=Y r1=1e-4 x1=1e-4 r0=1e-4 x0=1e-4 normamps=9999
New Line.341578782 Phases=3 Bus1=node_535120632.1.2.3 Bus2=node_535120633.1.2.3 Switch=Y r1=1e-4 x1=1e-4 r0=1e-4 x0=1e-4 normamps=9999
New Line.1372912420 Phases=3 Bus1=node_1667493652.1.2.3 Bus2=node_1667494076.1.2.3 Switch=Y r1=1e-4 x1=1e-4 r0=1e-4 x0=1e-4 normamps=9999
New Line.1690849373 Phases=3 Bus1=100_1690849385.1.2.3 Bus2=100_1690849386.1.2.3 Switch=Y r1=1e-4 x1=1e-4 r0=1e-4 x0=1e-4 normamps=9999
New Line.1855914135 Phases=1 Bus1=node_2176744803.1 Bus2=node_2176744804.1 Switch=Y r1=1e-4 x1=1e-4 r0=1e-4 x0=1e-4 normamps=9999
New Line.1832739572 Phases=3 Bus1=100_1832739601.1.2.3 Bus2=100_1832739602.1.2.3 Switch=Y r1=1e-4 x1=1e-4 r0=1e-4 x0=1e-4 normamps=9999
New Line.2262960286 Phases=3 Bus1=100_2656091039.1.2.3 Bus2=100_2656091038.1.2.3 Switch=Y r1=1e-4 x1=1e-4 r0=1e-4 x0=1e-4 normamps=9999
New Line.2262961130 Phases=3 Bus1=node_2534661378.1.2.3 Bus2=node_2534661398.1.2.3 Switch=Y r1=1e-4 x1=1e-4 r0=1e-4 x0=1e-4 normamps=9999
New Line.2262961226 Phases=3 Bus1=node_2534661586.1.2.3 Bus2=node_2534661600.1.2.3 Switch=Y r1=1e-4 x1=1e-4 r0=1e-4 x0=1e-4 normamps=9999
New Line.342000578 Phases=3 Bus1=node_535489782.1.2.3 Bus2=node_535489783.1.2.3 Switch=Y r1=1e-4 x1=1e-4 r0=1e-4 x0=1e-4 normamps=9999
New Line.2263593777 Phases=3 Bus1=node_2589391422.1.2.3 Bus2=node_2589391423.1.2.3 Switch=Y r1=1e-4 x1=1e-4 r0=1e-4 x0=1e-4 normamps=9999
New Line.1832739550 Phases=3 Bus1=segm_1832739540.1.2.3 Bus2=100_1832739602.1.2.3 Switch=Y r1=1e-4 x1=1e-4 r0=1e-4 x0=1e-4 normamps=9999
New Line.351044400 Phases=3 Bus1=segm_351044373.1.2.3 Bus2=100_351044372.1.2.3 Switch=Y r1=1e-4 x1=1e-4 r0=1e-4 x0=1e-4 normamps=9999
New Line.2290531269 Phases=1 Bus1=node_2477496534.3 Bus2=node_2477496555.3 Switch=Y r1=1e-4 x1=1e-4 r0=1e-4 x0=1e-4 normamps=9999
New Line.1832739589 Phases=3 Bus1=100_1832739601.1.2.3 Bus2=segm_1832739545.1.2.3 Switch=Y r1=1e-4 x1=1e-4 r0=1e-4 x0=1e-4 normamps=9999
New Line.912306095 Phases=3 Bus1=100_912306108.1.2.3 Bus2=100_912306107.1.2.3 Switch=Y r1=1e-4 x1=1e-4 r0=1e-4 x0=1e-4 normamps=9999
New Line.912304068 Phases=3 Bus1=node_439498627.1.2.3 Bus2=node_1173019339.1.2.3 Switch=Y r1=1e-4 x1=1e-4 r0=1e-4 x0=1e-4 normamps=9999
New Line.912305452 Phases=3 Bus1=100_912305480.1.2.3 Bus2=100_912305479.1.2.3 Switch=Y r1=1e-4 x1=1e-4 r0=1e-4 x0=1e-4 normamps=9999
New Line.912306088 Phases=3 Bus1=100_912306108.1.2.3 Bus2=100_912306107.1.2.3 Switch=Y r1=1e-4 x1=1e-4 r0=1e-4 x0=1e-4 normamps=9999
New Line.912305327 Phases=3 Bus1=node_1173021304.1.2.3 Bus2=node_1173021393.1.2.3 Switch=Y r1=1e-4 x1=1e-4 r0=1e-4 x0=1e-4 normamps=9999
New Line.1099255498 Phases=3 Bus1=100_1099255504.1.2.3 Bus2=100_1099255503.1.2.3 Switch=Y r1=1e-4 x1=1e-4 r0=1e-4 x0=1e-4 normamps=9999
New Line.1099255491 Phases=3 Bus1=100_1099255504.1.2.3 Bus2=100_1099255503.1.2.3 Switch=Y r1=1e-4 x1=1e-4 r0=1e-4 x0=1e-4 normamps=9999
New Line.912305459 Phases=3 Bus1=100_912305480.1.2.3 Bus2=100_912305479.1.2.3 Switch=Y r1=1e-4 x1=1e-4 r0=1e-4 x0=1e-4 normamps=9999
New Line.1446597474 Phases=1 Bus1=node_1742883899.3 Bus2=node_1742883900.3 Switch=Y r1=1e-4 x1=1e-4 r0=1e-4 x0=1e-4 normamps=9999
New Line.1462815662 Phases=3 Bus1=node_1760304216.1.2.3 Bus2=node_2753736893.1.2.3 Switch=Y r1=1e-4 x1=1e-4 r0=1e-4 x0=1e-4 normamps=9999
New Line.346338171 Phases=1 Bus1=node_540512675.1 Bus2=node_540512676.1 Switch=Y r1=1e-4 x1=1e-4 r0=1e-4 x0=1e-4 normamps=9999
New Line.539631915 Phases=3 Bus1=node_809664569.1.2.3 Bus2=node_2714628978.1.2.3 Switch=Y r1=1e-4 x1=1e-4 r0=1e-4 x0=1e-4 normamps=9999
New Line.340975930 Phases=3 Bus1=node_1729499100.1.2.3 Bus2=node_1729499101.1.2.3 Switch=Y r1=1e-4 x1=1e-4 r0=1e-4 x0=1e-4 normamps=9999
New Line.1484809527 Phases=1 Bus1=node_1792732522.2 Bus2=node_1792732523.2 Switch=Y r1=1e-4 x1=1e-4 r0=1e-4 x0=1e-4 normamps=9999
New Line.1484809535 Phases=1 Bus1=node_1792732544.2 Bus2=node_1792732545.2 Switch=Y r1=1e-4 x1=1e-4 r0=1e-4 x0=1e-4 normamps=9999
New Line.342004207 Phases=1 Bus1=node_1789297226.2 Bus2=node_1789297267.2 Switch=Y r1=1e-4 x1=1e-4 r0=1e-4 x0=1e-4 normamps=9999
New Line.1414774302 Phases=1 Bus1=node_2811758675.1 Bus2=node_2811758694.1 Switch=Y r1=1e-4 x1=1e-4 r0=1e-4 x0=1e-4 normamps=9999
New Line.350208546 Phases=1 Bus1=100_350208559.1 Bus2=100_350208560.1 Switch=Y r1=1e-4 x1=1e-4 r0=1e-4 x0=1e-4 normamps=9999
New Line.341576330 Phases=3 Bus1=node_535013027.1.2.3 Bus2=node_535013028.1.2.3 Switch=Y r1=1e-4 x1=1e-4 r0=1e-4 x0=1e-4 normamps=9999
New Line.1550941289 Phases=1 Bus1=100_1550941320.2 Bus2=100_1550941319.2 Switch=Y r1=1e-4 x1=1e-4 r0=1e-4 x0=1e-4 normamps=9999
New Line.350208412 Phases=1 Bus1=100_350208426.2 Bus2=100_350208425.2 Switch=Y r1=1e-4 x1=1e-4 r0=1e-4 x0=1e-4 normamps=9999
New Line.350209136 Phases=1 Bus1=100_350209149.1 Bus2=100_350209150.1 Switch=Y r1=1e-4 x1=1e-4 r0=1e-4 x0=1e-4 normamps=9999
New Line.342162826 Phases=3 Bus1=node_536030752.1.2.3 Bus2=node_536030753.1.2.3 Switch=Y r1=1e-4 x1=1e-4 r0=1e-4 x0=1e-4 normamps=9999
New Line.341222674 Phases=3 Bus1=node_534923267.1.2.3 Bus2=node_534923268.1.2.3 Switch=Y r1=1e-4 x1=1e-4 r0=1e-4 x0=1e-4 normamps=9999
New Line.1495704184 Phases=3 Bus1=100_1495704189.1.2.3 Bus2=100_1495704190.1.2.3 Switch=Y r1=1e-4 x1=1e-4 r0=1e-4 x0=1e-4 normamps=9999
New Line.1545822831 Phases=1 Bus1=100_1545822859.1 Bus2=100_1545822858.1 Switch=Y r1=1e-4 x1=1e-4 r0=1e-4 x0=1e-4 normamps=9999
New Line.1495704177 Phases=3 Bus1=100_1495704189.1.2.3 Bus2=100_1495704190.1.2.3 Switch=Y r1=1e-4 x1=1e-4 r0=1e-4 x0=1e-4 normamps=9999
New Line.1495703733 Phases=3 Bus1=node_1900878073.1.2.3 Bus2=node_1900878074.1.2.3 Switch=Y r1=1e-4 x1=1e-4 r0=1e-4 x0=1e-4 normamps=9999
New Line.342740057 Phases=3 Bus1=node_536590129.1.2.3 Bus2=node_536590130.1.2.3 Switch=Y r1=1e-4 x1=1e-4 r0=1e-4 x0=1e-4 normamps=9999
New Line.342920154 Phases=3 Bus1=node_536783956.1.2.3 Bus2=node_536783957.1.2.3 Switch=Y r1=1e-4 x1=1e-4 r0=1e-4 x0=1e-4 normamps=9999
New Line.350209076 Phases=1 Bus1=100_350209089.3 Bus2=100_350209090.3 Switch=Y r1=1e-4 x1=1e-4 r0=1e-4 x0=1e-4 normamps=9999
New Line.342000661 Phases=3 Bus1=node_535489944.1.2.3 Bus2=node_535489943.1.2.3 Switch=Y r1=1e-4 x1=1e-4 r0=1e-4 x0=1e-4 normamps=9999
New Line.342000957 Phases=3 Bus1=node_535490497.1.2.3 Bus2=node_535490498.1.2.3 Switch=Y r1=1e-4 x1=1e-4 r0=1e-4 x0=1e-4 normamps=9999
New Line.350764500 Phases=1 Bus1=100_350764513.1 Bus2=100_350764514.1 Switch=Y r1=1e-4 x1=1e-4 r0=1e-4 x0=1e-4 normamps=9999
New Line.1564935569 Phases=3 Bus1=node_1884503844.1.2.3 Bus2=node_1884503845.1.2.3 Switch=Y r1=1e-4 x1=1e-4 r0=1e-4 x0=1e-4 normamps=9999
New Line.1580423946 Phases=1 Bus1=node_1900361403.2 Bus2=node_1900361404.2 Switch=Y r1=1e-4 x1=1e-4 r0=1e-4 x0=1e-4 normamps=9999
New Line.1204681913 Phases=1 Bus1=node_1503454484.3 Bus2=node_1503454485.3 Switch=Y r1=1e-4 x1=1e-4 r0=1e-4 x0=1e-4 normamps=9999
New Line.1560143393 Phases=1 Bus1=node_1879531260.1 Bus2=node_1879531261.1 Switch=Y r1=1e-4 x1=1e-4 r0=1e-4 x0=1e-4 normamps=9999
New Line.346057843 Phases=1 Bus1=node_1874687487.1 Bus2=node_1874687488.1 Switch=Y r1=1e-4 x1=1e-4 r0=1e-4 x0=1e-4 normamps=9999
New Line.342162816 Phases=3 Bus1=node_536030734.1.2.3 Bus2=node_536030735.1.2.3 Switch=Y r1=1e-4 x1=1e-4 r0=1e-4 x0=1e-4 normamps=9999
New Line.351043980 Phases=3 Bus1=100_1648960805.1.2.3 Bus2=100_1648960804.1.2.3 Switch=Y r1=1e-4 x1=1e-4 r0=1e-4 x0=1e-4 normamps=9999
New Line.1512209510 Phases=1 Bus1=node_1823666648.1 Bus2=node_1823666649.1 Switch=Y r1=1e-4 x1=1e-4 r0=1e-4 x0=1e-4 normamps=9999
New Line.1546308198 Phases=1 Bus1=node_1865764856.3 Bus2=node_1865764857.3 Switch=Y r1=1e-4 x1=1e-4 r0=1e-4 x0=1e-4 normamps=9999
New Line.1630685364 Phases=3 Bus1=100_1630685376.1.2.3 Bus2=100_1630685377.1.2.3 Switch=Y r1=1e-4 x1=1e-4 r0=1e-4 x0=1e-4 normamps=9999
New Line.1630686054 Phases=3 Bus1=node_1950826247.1.2.3 Bus2=node_1950826246.1.2.3 Switch=Y r1=1e-4 x1=1e-4 r0=1e-4 x0=1e-4 normamps=9999
New Line.1667201439 Phases=3 Bus1=node_1956853309.1.2.3 Bus2=node_1956853308.1.2.3 Switch=Y r1=1e-4 x1=1e-4 r0=1e-4 x0=1e-4 normamps=9999
New Line.1630686799 Phases=3 Bus1=node_1950827313.1.2.3 Bus2=node_1950827314.1.2.3 Switch=Y r1=1e-4 x1=1e-4 r0=1e-4 x0=1e-4 normamps=9999
New Line.1630685463 Phases=3 Bus1=node_1950824934.1.2.3 Bus2=node_1950824935.1.2.3 Switch=Y r1=1e-4 x1=1e-4 r0=1e-4 x0=1e-4 normamps=9999
New Line.1331759893 Phases=3 Bus1=node_1627458967.1.2.3 Bus2=node_1627458968.1.2.3 Switch=Y r1=1e-4 x1=1e-4 r0=1e-4 x0=1e-4 normamps=9999
New Line.1630685371 Phases=3 Bus1=100_1630685376.1.2.3 Bus2=100_1630685377.1.2.3 Switch=Y r1=1e-4 x1=1e-4 r0=1e-4 x0=1e-4 normamps=9999
New Line.343307325 Phases=3 Bus1=node_1711996453.1.2.3 Bus2=node_1711996454.1.2.3 Switch=Y r1=1e-4 x1=1e-4 r0=1e-4 x0=1e-4 normamps=9999
New Line.1697456889 Phases=1 Bus1=node_2063292820.3 Bus2=node_2063292881.3 Switch=Y r1=1e-4 x1=1e-4 r0=1e-4 x0=1e-4 normamps=9999
New Line.1626176541 Phases=1 Bus1=node_1975506421.1 Bus2=node_1975506496.1 Switch=Y r1=1e-4 x1=1e-4 r0=1e-4 x0=1e-4 normamps=9999
New Line.1414645737 Phases=1 Bus1=node_1711997169.3 Bus2=node_1711997170.3 Switch=Y r1=1e-4 x1=1e-4 r0=1e-4 x0=1e-4 normamps=9999
New Line.1694202098 Phases=1 Bus1=node_2019970914.1 Bus2=node_2019970915.1 Switch=Y r1=1e-4 x1=1e-4 r0=1e-4 x0=1e-4 normamps=9999
New Line.1717136313 Phases=1 Bus1=node_2043175578.2 Bus2=node_2043175579.2 Switch=Y r1=1e-4 x1=1e-4 r0=1e-4 x0=1e-4 normamps=9999
New Line.347002734 Phases=1 Bus1=node_541929178.1 Bus2=node_541929179.1 Switch=Y r1=1e-4 x1=1e-4 r0=1e-4 x0=1e-4 normamps=9999
New Line.341222062 Phases=3 Bus1=node_534921591.1.2.3 Bus2=node_534921592.1.2.3 Switch=Y r1=1e-4 x1=1e-4 r0=1e-4 x0=1e-4 normamps=9999
New Line.2482859632 Phases=3 Bus1=100_2482859661.1.2.3 Bus2=segm_2482859605.1.2.3 Switch=Y r1=1e-4 x1=1e-4 r0=1e-4 x0=1e-4 normamps=9999
New Line.343137769 Phases=3 Bus1=node_537109349.1.2.3 Bus2=node_537109350.1.2.3 Switch=Y r1=1e-4 x1=1e-4 r0=1e-4 x0=1e-4 normamps=9999
New Line.342543496 Phases=3 Bus1=node_536480197.1.2.3 Bus2=node_536480196.1.2.3 Switch=Y r1=1e-4 x1=1e-4 r0=1e-4 x0=1e-4 normamps=9999
New Line.342162804 Phases=3 Bus1=node_536030716.1.2.3 Bus2=node_536030717.1.2.3 Switch=Y r1=1e-4 x1=1e-4 r0=1e-4 x0=1e-4 normamps=9999
New Line.1805176355 Phases=1 Bus1=node_2128793748.3 Bus2=node_2128793776.3 Switch=Y r1=1e-4 x1=1e-4 r0=1e-4 x0=1e-4 normamps=9999
New Line.1701410508 Phases=3 Bus1=segm_1701410498.1.2.3 Bus2=100_1701410559.1.2.3 Switch=Y r1=1e-4 x1=1e-4 r0=1e-4 x0=1e-4 normamps=9999
New Line.1865120424 Phases=1 Bus1=node_2186122791.3 Bus2=node_2186122792.3 Switch=Y r1=1e-4 x1=1e-4 r0=1e-4 x0=1e-4 normamps=9999
New Line.1796764710 Phases=1 Bus1=node_2120824741.3 Bus2=node_2120824771.3 Switch=Y r1=1e-4 x1=1e-4 r0=1e-4 x0=1e-4 normamps=9999
New Line.342001609 Phases=3 Bus1=node_535491626.1.2.3 Bus2=node_535491627.1.2.3 Switch=Y r1=1e-4 x1=1e-4 r0=1e-4 x0=1e-4 normamps=9999
New Line.342919789 Phases=3 Bus1=node_536783329.1.2.3 Bus2=node_536783328.1.2.3 Switch=Y r1=1e-4 x1=1e-4 r0=1e-4 x0=1e-4 normamps=9999
New Line.340975940 Phases=3 Bus1=node_534604562.1.2.3 Bus2=node_534604561.1.2.3 Switch=Y r1=1e-4 x1=1e-4 r0=1e-4 x0=1e-4 normamps=9999
New Line.340975888 Phases=3 Bus1=node_534604463.1.2.3 Bus2=node_534604462.1.2.3 Switch=Y r1=1e-4 x1=1e-4 r0=1e-4 x0=1e-4 normamps=9999
New Line.342162037 Phases=3 Bus1=node_536029338.1.2.3 Bus2=node_536029339.1.2.3 Switch=Y r1=1e-4 x1=1e-4 r0=1e-4 x0=1e-4 normamps=9999
New Line.341999968 Phases=3 Bus1=node_535488616.1.2.3 Bus2=node_535488617.1.2.3 Switch=Y r1=1e-4 x1=1e-4 r0=1e-4 x0=1e-4 normamps=9999
New Line.341813617 Phases=1 Bus1=node_535355181.1 Bus2=node_535355182.1 Switch=Y r1=1e-4 x1=1e-4 r0=1e-4 x0=1e-4 normamps=9999
New Line.341221957 Phases=1 Bus1=node_534921276.1 Bus2=node_534921277.1 Switch=Y r1=1e-4 x1=1e-4 r0=1e-4 x0=1e-4 normamps=9999
New Line.342741313 Phases=1 Bus1=node_536687379.1 Bus2=node_536687380.1 Switch=Y r1=1e-4 x1=1e-4 r0=1e-4 x0=1e-4 normamps=9999
New Line.343137086 Phases=3 Bus1=node_537108096.1.2.3 Bus2=node_537108097.1.2.3 Switch=Y r1=1e-4 x1=1e-4 r0=1e-4 x0=1e-4 normamps=9999
New Line.340975951 Phases=3 Bus1=node_534604583.1.2.3 Bus2=node_534604582.1.2.3 Switch=Y r1=1e-4 x1=1e-4 r0=1e-4 x0=1e-4 normamps=9999
New Line.343135714 Phases=3 Bus1=node_537031580.1.2.3 Bus2=node_537031581.1.2.3 Switch=Y r1=1e-4 x1=1e-4 r0=1e-4 x0=1e-4 normamps=9999
New Line.343135742 Phases=1 Bus1=node_2973844074.2 Bus2=node_2973844075.2 Switch=Y r1=1e-4 x1=1e-4 r0=1e-4 x0=1e-4 normamps=9999
New Line.341576249 Phases=3 Bus1=node_535012887.1.2.3 Bus2=node_535012886.1.2.3 Switch=Y r1=1e-4 x1=1e-4 r0=1e-4 x0=1e-4 normamps=9999
New Line.341576205 Phases=3 Bus1=node_535012809.1.2.3 Bus2=node_535012808.1.2.3 Switch=Y r1=1e-4 x1=1e-4 r0=1e-4 x0=1e-4 normamps=9999
New Line.339856480 Phases=3 Bus1=node_534266134.1.2.3 Bus2=node_534266135.1.2.3 Switch=Y r1=1e-4 x1=1e-4 r0=1e-4 x0=1e-4 normamps=9999
New Line.342161981 Phases=3 Bus1=node_536029225.1.2.3 Bus2=node_536029224.1.2.3 Switch=Y r1=1e-4 x1=1e-4 r0=1e-4 x0=1e-4 normamps=9999
New Line.341576022 Phases=3 Bus1=node_535012391.1.2.3 Bus2=node_535012392.1.2.3 Switch=Y r1=1e-4 x1=1e-4 r0=1e-4 x0=1e-4 normamps=9999
New Line.342542770 Phases=3 Bus1=node_536375784.1.2.3 Bus2=node_536375785.1.2.3 Switch=Y r1=1e-4 x1=1e-4 r0=1e-4 x0=1e-4 normamps=9999
New Line.342918973 Phases=3 Bus1=node_536781828.1.2.3 Bus2=node_536781829.1.2.3 Switch=Y r1=1e-4 x1=1e-4 r0=1e-4 x0=1e-4 normamps=9999
New Line.341576239 Phases=3 Bus1=node_535012868.1.2.3 Bus2=node_535012869.1.2.3 Switch=Y r1=1e-4 x1=1e-4 r0=1e-4 x0=1e-4 normamps=9999
New Line.342160325 Phases=1 Bus1=node_535891723.1 Bus2=node_535891724.1 Switch=Y r1=1e-4 x1=1e-4 r0=1e-4 x0=1e-4 normamps=9999
New Line.340976115 Phases=3 Bus1=node_534604920.1.2.3 Bus2=node_534604921.1.2.3 Switch=Y r1=1e-4 x1=1e-4 r0=1e-4 x0=1e-4 normamps=9999
New Line.341575989 Phases=3 Bus1=node_535012334.1.2.3 Bus2=node_535012335.1.2.3 Switch=Y r1=1e-4 x1=1e-4 r0=1e-4 x0=1e-4 normamps=9999
New Line.343137058 Phases=3 Bus1=node_537108032.1.2.3 Bus2=node_537108033.1.2.3 Switch=Y r1=1e-4 x1=1e-4 r0=1e-4 x0=1e-4 normamps=9999
New Line.341575963 Phases=3 Bus1=node_535012280.1.2.3 Bus2=node_535012281.1.2.3 Switch=Y r1=1e-4 x1=1e-4 r0=1e-4 x0=1e-4 normamps=9999
New Line.341222334 Phases=1 Bus1=node_534922383.3 Bus2=node_534922384.3 Switch=Y r1=1e-4 x1=1e-4 r0=1e-4 x0=1e-4 normamps=9999
New Line.342162046 Phases=3 Bus1=node_536029353.1.2.3 Bus2=node_536029354.1.2.3 Switch=Y r1=1e-4 x1=1e-4 r0=1e-4 x0=1e-4 normamps=9999
New Line.340974364 Phases=1 Bus1=node_534527287.2 Bus2=node_534527288.2 Switch=Y r1=1e-4 x1=1e-4 r0=1e-4 x0=1e-4 normamps=9999
New Line.342918994 Phases=3 Bus1=node_536781868.1.2.3 Bus2=node_536781867.1.2.3 Switch=Y r1=1e-4 x1=1e-4 r0=1e-4 x0=1e-4 normamps=9999
New Line.340976011 Phases=3 Bus1=node_534604705.1.2.3 Bus2=node_534604704.1.2.3 Switch=Y r1=1e-4 x1=1e-4 r0=1e-4 x0=1e-4 normamps=9999
New Line.339856491 Phases=3 Bus1=node_534266156.1.2.3 Bus2=node_534266155.1.2.3 Switch=Y r1=1e-4 x1=1e-4 r0=1e-4 x0=1e-4 normamps=9999
New Line.340975918 Phases=3 Bus1=node_534604525.1.2.3 Bus2=node_534604526.1.2.3 Switch=Y r1=1e-4 x1=1e-4 r0=1e-4 x0=1e-4 normamps=9999
New Line.342161971 Phases=3 Bus1=node_536029206.1.2.3 Bus2=node_536029207.1.2.3 Switch=Y r1=1e-4 x1=1e-4 r0=1e-4 x0=1e-4 normamps=9999
New Line.341814164 Phases=1 Bus1=node_535356728.3 Bus2=node_535356729.3 Switch=Y r1=1e-4 x1=1e-4 r0=1e-4 x0=1e-4 normamps=9999
New Line.343135572 Phases=1 Bus1=node_537031200.1 Bus2=node_537031201.1 Switch=Y r1=1e-4 x1=1e-4 r0=1e-4 x0=1e-4 normamps=9999
New Line.350209771 Phases=3 Bus1=100_350209740.1.2.3 Bus2=100_350209761.1.2.3 Switch=Y r1=1e-4 x1=1e-4 r0=1e-4 x0=1e-4 normamps=9999
New Line.342161960 Phases=3 Bus1=node_536029186.1.2.3 Bus2=node_536029185.1.2.3 Switch=Y r1=1e-4 x1=1e-4 r0=1e-4 x0=1e-4 normamps=9999
New Line.340974383 Phases=1 Bus1=node_534527344.3 Bus2=node_534527345.3 Switch=Y r1=1e-4 x1=1e-4 r0=1e-4 x0=1e-4 normamps=9999
New Line.342541140 Phases=1 Bus1=node_536268374.2 Bus2=node_536268375.2 Switch=Y r1=1e-4 x1=1e-4 r0=1e-4 x0=1e-4 normamps=9999
New Line.340974281 Phases=1 Bus1=node_534527062.2 Bus2=node_534527063.2 Switch=Y r1=1e-4 x1=1e-4 r0=1e-4 x0=1e-4 normamps=9999
New Line.342160359 Phases=1 Bus1=node_535891801.2 Bus2=node_535891802.2 Switch=Y r1=1e-4 x1=1e-4 r0=1e-4 x0=1e-4 normamps=9999
New Line.343135796 Phases=3 Bus1=node_537031802.1.2.3 Bus2=node_537031803.1.2.3 Switch=Y r1=1e-4 x1=1e-4 r0=1e-4 x0=1e-4 normamps=9999
New Line.2482859620 Phases=3 Bus1=100_2482859661.1.2.3 Bus2=100_2482859662.1.2.3 Switch=Y r1=1e-4 x1=1e-4 r0=1e-4 x0=1e-4 normamps=9999
New Line.2482859644 Phases=3 Bus1=100_2482859662.1.2.3 Bus2=segm_2482859656.1.2.3 Switch=Y r1=1e-4 x1=1e-4 r0=1e-4 x0=1e-4 normamps=9999
New Line.343388317 Phases=1 Bus1=node_537306670.2 Bus2=node_537306671.2 Switch=Y r1=1e-4 x1=1e-4 r0=1e-4 x0=1e-4 normamps=9999
New Line.342160341 Phases=3 Bus1=node_535891759.1.2.3 Bus2=node_535891760.1.2.3 Switch=Y r1=1e-4 x1=1e-4 r0=1e-4 x0=1e-4 normamps=9999
New Line.343135363 Phases=3 Bus1=node_537030621.1.2.3 Bus2=node_537030622.1.2.3 Switch=Y r1=1e-4 x1=1e-4 r0=1e-4 x0=1e-4 normamps=9999
New Line.342000100 Phases=3 Bus1=node_535488910.1.2.3 Bus2=node_535488911.1.2.3 Switch=Y r1=1e-4 x1=1e-4 r0=1e-4 x0=1e-4 normamps=9999
New Line.342541475 Phases=1 Bus1=node_1870530953.2 Bus2=node_1870530954.2 Switch=Y r1=1e-4 x1=1e-4 r0=1e-4 x0=1e-4 normamps=9999
New Line.343135374 Phases=1 Bus1=node_537030642.1 Bus2=node_537030643.1 Switch=Y r1=1e-4 x1=1e-4 r0=1e-4 x0=1e-4 normamps=9999
New Line.342160460 Phases=1 Bus1=node_535892080.1 Bus2=node_535892081.1 Switch=Y r1=1e-4 x1=1e-4 r0=1e-4 x0=1e-4 normamps=9999
New Line.342918983 Phases=3 Bus1=node_536781847.1.2.3 Bus2=node_536781846.1.2.3 Switch=Y r1=1e-4 x1=1e-4 r0=1e-4 x0=1e-4 normamps=9999
New Line.340974377 Phases=1 Bus1=node_534527326.1 Bus2=node_534527327.1 Switch=Y r1=1e-4 x1=1e-4 r0=1e-4 x0=1e-4 normamps=9999
New Line.342541152 Phases=3 Bus1=node_536268410.1.2.3 Bus2=node_536268411.1.2.3 Switch=Y r1=1e-4 x1=1e-4 r0=1e-4 x0=1e-4 normamps=9999
New Line.342160828 Phases=1 Bus1=node_535893126.3 Bus2=node_535893127.3 Switch=Y r1=1e-4 x1=1e-4 r0=1e-4 x0=1e-4 normamps=9999
New Line.341222366 Phases=3 Bus1=node_534922479.1.2.3 Bus2=node_534922480.1.2.3 Switch=Y r1=1e-4 x1=1e-4 r0=1e-4 x0=1e-4 normamps=9999
New Line.343387967 Phases=1 Bus1=node_537305716.3 Bus2=node_537305717.3 Switch=Y r1=1e-4 x1=1e-4 r0=1e-4 x0=1e-4 normamps=9999
New Line.341813797 Phases=3 Bus1=node_535355709.1.2.3 Bus2=node_535355710.1.2.3 Switch=Y r1=1e-4 x1=1e-4 r0=1e-4 x0=1e-4 normamps=9999
New Line.341814154 Phases=3 Bus1=node_535356710.1.2.3 Bus2=node_535356711.1.2.3 Switch=Y r1=1e-4 x1=1e-4 r0=1e-4 x0=1e-4 normamps=9999
New Line.343135789 Phases=1 Bus1=node_537031781.3 Bus2=node_537031782.3 Switch=Y r1=1e-4 x1=1e-4 r0=1e-4 x0=1e-4 normamps=9999
New Line.342541026 Phases=3 Bus1=node_536268068.1.2.3 Bus2=node_536268069.1.2.3 Switch=Y r1=1e-4 x1=1e-4 r0=1e-4 x0=1e-4 normamps=9999
New Line.342541010 Phases=3 Bus1=node_536268032.1.2.3 Bus2=node_536268033.1.2.3 Switch=Y r1=1e-4 x1=1e-4 r0=1e-4 x0=1e-4 normamps=9999
New Line.341814135 Phases=1 Bus1=node_535356653.1 Bus2=node_535356654.1 Switch=Y r1=1e-4 x1=1e-4 r0=1e-4 x0=1e-4 normamps=9999
New Line.341813630 Phases=1 Bus1=node_535355220.1 Bus2=node_535355221.1 Switch=Y r1=1e-4 x1=1e-4 r0=1e-4 x0=1e-4 normamps=9999
New Line.341813624 Phases=1 Bus1=node_535355202.1 Bus2=node_535355203.1 Switch=Y r1=1e-4 x1=1e-4 r0=1e-4 x0=1e-4 normamps=9999
New Line.342541469 Phases=1 Bus1=node_536372407.3 Bus2=node_536372408.3 Switch=Y r1=1e-4 x1=1e-4 r0=1e-4 x0=1e-4 normamps=9999
New Line.342000075 Phases=3 Bus1=node_535488864.1.2.3 Bus2=node_535488863.1.2.3 Switch=Y r1=1e-4 x1=1e-4 r0=1e-4 x0=1e-4 normamps=9999
New Line.339856470 Phases=3 Bus1=node_534266116.1.2.3 Bus2=node_534266117.1.2.3 Switch=Y r1=1e-4 x1=1e-4 r0=1e-4 x0=1e-4 normamps=9999
New Line.342160495 Phases=1 Bus1=node_535892173.1 Bus2=node_535892174.1 Switch=Y r1=1e-4 x1=1e-4 r0=1e-4 x0=1e-4 normamps=9999
New Line.341219010 Phases=1 Bus1=node_534716835.3 Bus2=node_534716836.3 Switch=Y r1=1e-4 x1=1e-4 r0=1e-4 x0=1e-4 normamps=9999
New Line.341814148 Phases=1 Bus1=node_535356692.1 Bus2=node_535356693.1 Switch=Y r1=1e-4 x1=1e-4 r0=1e-4 x0=1e-4 normamps=9999
New Line.341814197 Phases=3 Bus1=node_535356827.1.2.3 Bus2=node_535356828.1.2.3 Switch=Y r1=1e-4 x1=1e-4 r0=1e-4 x0=1e-4 normamps=9999
New Line.342160352 Phases=1 Bus1=node_535891780.3 Bus2=node_535891781.3 Switch=Y r1=1e-4 x1=1e-4 r0=1e-4 x0=1e-4 normamps=9999
New Line.342541124 Phases=1 Bus1=node_536268338.3 Bus2=node_536268339.3 Switch=Y r1=1e-4 x1=1e-4 r0=1e-4 x0=1e-4 normamps=9999
New Line.343135783 Phases=1 Bus1=node_537031763.2 Bus2=node_537031764.2 Switch=Y r1=1e-4 x1=1e-4 r0=1e-4 x0=1e-4 normamps=9999
New Line.342541574 Phases=1 Bus1=node_536372710.1 Bus2=node_536372711.1 Switch=Y r1=1e-4 x1=1e-4 r0=1e-4 x0=1e-4 normamps=9999
New Line.342160712 Phases=1 Bus1=node_535892802.1 Bus2=node_535892803.1 Switch=Y r1=1e-4 x1=1e-4 r0=1e-4 x0=1e-4 normamps=9999
New Line.341814044 Phases=1 Bus1=node_535356404.3 Bus2=node_535356405.3 Switch=Y r1=1e-4 x1=1e-4 r0=1e-4 x0=1e-4 normamps=9999
New Line.343388324 Phases=1 Bus1=node_537306691.2 Bus2=node_537306692.2 Switch=Y r1=1e-4 x1=1e-4 r0=1e-4 x0=1e-4 normamps=9999
New Line.342741664 Phases=1 Bus1=node_536688324.3 Bus2=node_536688325.3 Switch=Y r1=1e-4 x1=1e-4 r0=1e-4 x0=1e-4 normamps=9999
New Line.340975898 Phases=3 Bus1=node_534604481.1.2.3 Bus2=node_534604480.1.2.3 Switch=Y r1=1e-4 x1=1e-4 r0=1e-4 x0=1e-4 normamps=9999
New Line.341222476 Phases=3 Bus1=node_534922737.1.2.3 Bus2=node_534922738.1.2.3 Switch=Y r1=1e-4 x1=1e-4 r0=1e-4 x0=1e-4 normamps=9999
New Line.340974798 Phases=1 Bus1=node_534528529.1 Bus2=node_534528530.1 Switch=Y r1=1e-4 x1=1e-4 r0=1e-4 x0=1e-4 normamps=9999
New Line.341222517 Phases=1 Bus1=node_534922848.3 Bus2=node_534922849.3 Switch=Y r1=1e-4 x1=1e-4 r0=1e-4 x0=1e-4 normamps=9999
New Line.343388395 Phases=1 Bus1=node_537306904.1 Bus2=node_537306905.1 Switch=Y r1=1e-4 x1=1e-4 r0=1e-4 x0=1e-4 normamps=9999
New Line.342541830 Phases=1 Bus1=node_536373304.2 Bus2=node_536373305.2 Switch=Y r1=1e-4 x1=1e-4 r0=1e-4 x0=1e-4 normamps=9999
New Line.342541020 Phases=1 Bus1=node_536268050.1 Bus2=node_536268051.1 Switch=Y r1=1e-4 x1=1e-4 r0=1e-4 x0=1e-4 normamps=9999
New Line.341222034 Phases=1 Bus1=node_534921507.1 Bus2=node_534921508.1 Switch=Y r1=1e-4 x1=1e-4 r0=1e-4 x0=1e-4 normamps=9999
New Line.343388030 Phases=1 Bus1=node_537305869.3 Bus2=node_537305870.3 Switch=Y r1=1e-4 x1=1e-4 r0=1e-4 x0=1e-4 normamps=9999
New Line.343388009 Phases=3 Bus1=node_537305830.1.2.3 Bus2=node_537305831.1.2.3 Switch=Y r1=1e-4 x1=1e-4 r0=1e-4 x0=1e-4 normamps=9999
New Line.342741684 Phases=1 Bus1=node_536688384.1 Bus2=node_536688385.1 Switch=Y r1=1e-4 x1=1e-4 r0=1e-4 x0=1e-4 normamps=9999
New Line.341222412 Phases=1 Bus1=node_534922569.1 Bus2=node_534922570.1 Switch=Y r1=1e-4 x1=1e-4 r0=1e-4 x0=1e-4 normamps=9999
New Line.343135478 Phases=1 Bus1=node_537030930.1 Bus2=node_537030931.1 Switch=Y r1=1e-4 x1=1e-4 r0=1e-4 x0=1e-4 normamps=9999
New Line.342541086 Phases=1 Bus1=node_536268224.3 Bus2=node_536268225.3 Switch=Y r1=1e-4 x1=1e-4 r0=1e-4 x0=1e-4 normamps=9999
New Line.343388401 Phases=1 Bus1=node_537306922.3 Bus2=node_537306923.3 Switch=Y r1=1e-4 x1=1e-4 r0=1e-4 x0=1e-4 normamps=9999
New Line.342741618 Phases=3 Bus1=node_536688210.1.2.3 Bus2=node_536688211.1.2.3 Switch=Y r1=1e-4 x1=1e-4 r0=1e-4 x0=1e-4 normamps=9999
New Line.342741319 Phases=3 Bus1=node_536687397.1.2.3 Bus2=node_536687398.1.2.3 Switch=Y r1=1e-4 x1=1e-4 r0=1e-4 x0=1e-4 normamps=9999
New Line.339135623 Phases=1 Bus1=node_533600911.3 Bus2=node_533600912.3 Switch=Y r1=1e-4 x1=1e-4 r0=1e-4 x0=1e-4 normamps=9999
New Line.340974763 Phases=1 Bus1=node_534528424.1 Bus2=node_534528425.1 Switch=Y r1=1e-4 x1=1e-4 r0=1e-4 x0=1e-4 normamps=9999
New Line.342160688 Phases=3 Bus1=node_535892742.1.2.3 Bus2=node_535892743.1.2.3 Switch=Y r1=1e-4 x1=1e-4 r0=1e-4 x0=1e-4 normamps=9999
New Line.342741330 Phases=3 Bus1=node_536687418.1.2.3 Bus2=node_536687419.1.2.3 Switch=Y r1=1e-4 x1=1e-4 r0=1e-4 x0=1e-4 normamps=9999
New Line.343135730 Phases=1 Bus1=node_537031616.2 Bus2=node_537031617.2 Switch=Y r1=1e-4 x1=1e-4 r0=1e-4 x0=1e-4 normamps=9999
New Line.340974712 Phases=1 Bus1=node_534528295.2 Bus2=node_534528296.2 Switch=Y r1=1e-4 x1=1e-4 r0=1e-4 x0=1e-4 normamps=9999
New Line.341222431 Phases=3 Bus1=node_534922626.1.2.3 Bus2=node_534922627.1.2.3 Switch=Y r1=1e-4 x1=1e-4 r0=1e-4 x0=1e-4 normamps=9999
New Line.341222072 Phases=1 Bus1=node_534921609.3 Bus2=node_534921610.3 Switch=Y r1=1e-4 x1=1e-4 r0=1e-4 x0=1e-4 normamps=9999
New Line.342160473 Phases=1 Bus1=node_535892119.2 Bus2=node_535892120.2 Switch=Y r1=1e-4 x1=1e-4 r0=1e-4 x0=1e-4 normamps=9999
New Line.339856530 Phases=3 Bus1=node_534266236.1.2.3 Bus2=node_534266237.1.2.3 Switch=Y r1=1e-4 x1=1e-4 r0=1e-4 x0=1e-4 normamps=9999
New Line.342000004 Phases=3 Bus1=node_535488694.1.2.3 Bus2=node_535488695.1.2.3 Switch=Y r1=1e-4 x1=1e-4 r0=1e-4 x0=1e-4 normamps=9999
New Line.341222000 Phases=1 Bus1=node_534921405.1 Bus2=node_534921406.1 Switch=Y r1=1e-4 x1=1e-4 r0=1e-4 x0=1e-4 normamps=9999
New Line.341575953 Phases=3 Bus1=node_535012262.1.2.3 Bus2=node_535012263.1.2.3 Switch=Y r1=1e-4 x1=1e-4 r0=1e-4 x0=1e-4 normamps=9999
New Line.341222486 Phases=1 Bus1=node_534922755.2 Bus2=node_534922756.2 Switch=Y r1=1e-4 x1=1e-4 r0=1e-4 x0=1e-4 normamps=9999
New Line.342160431 Phases=1 Bus1=node_535891993.1 Bus2=node_535891994.1 Switch=Y r1=1e-4 x1=1e-4 r0=1e-4 x0=1e-4 normamps=9999
New Line.342541130 Phases=3 Bus1=node_536268356.1.2.3 Bus2=node_536268357.1.2.3 Switch=Y r1=1e-4 x1=1e-4 r0=1e-4 x0=1e-4 normamps=9999
...
